trinity-board
*SPICE Netlist generated by Advanced Sim server on 22.03.2019 10:04:27

*Schematic Netlist:

.SAVE 0


*Selected Circuit Analyses:
.TRAN 2E-8 5E-6 0 2E-8
.OP

.END
